# generated using pymatgen
data_Li3Fe4(PO4)4
_symmetry_space_group_name_H-M   P-1
_cell_length_a   4.75195500
_cell_length_b   6.08735100
_cell_length_c   10.45066800
_cell_angle_alpha   90.00000000
_cell_angle_beta   90.00000000
_cell_angle_gamma   90.00000000
_symmetry_Int_Tables_number   2
_chemical_formula_structural   Li3Fe4(PO4)4
_chemical_formula_sum   'Li3 Fe4 P4 O16'
_cell_volume   302.304571436
_cell_formula_units_Z   1
loop_
 _symmetry_equiv_pos_site_id
 _symmetry_equiv_pos_as_xyz
  1  'x, y, z'
  2  '-x, -y, -z'
loop_
 _atom_site_type_symbol
 _atom_site_label
 _atom_site_symmetry_multiplicity
 _atom_site_fract_x
 _atom_site_fract_y
 _atom_site_fract_z
 _atom_site_occupancy
  Li  Li1  1  0.000000  0.500000  0.000000  1
  Li  Li2  1  0.500000  0.000000  0.500000  1
  Li  Li3  1  0.500000  0.500000  0.500000  1
  Fe  Fe4  2  0.003959  0.754911  0.732621  1
  Fe  Fe5  2  0.478759  0.756026  0.223381  1
  P  P6  2  0.078482  0.249534  0.603886  1
  P  P7  2  0.430420  0.250916  0.101359  1
  O  O8  2  0.187469  0.247842  0.462842  1
  O  O9  2  0.219006  0.045186  0.675309  1
  O  O10  2  0.221774  0.452601  0.673980  1
  O  O11  2  0.246754  0.739170  0.884628  1
  O  O12  2  0.248207  0.751149  0.390756  1
  O  O13  2  0.270281  0.451587  0.172612  1
  O  O14  2  0.290236  0.051875  0.179430  1
  O  O15  2  0.342183  0.258928  0.959632  1
