# generated using pymatgen
data_Bi2Se3
_symmetry_space_group_name_H-M   'P 1'
_cell_length_a   10.26552512
_cell_length_b   10.26552499
_cell_length_c   10.26552461
_cell_angle_alpha   23.55922073
_cell_angle_beta   23.55922245
_cell_angle_gamma   23.55922108
_symmetry_Int_Tables_number   1
_chemical_formula_structural   Bi2Se3
_chemical_formula_sum   'Bi2 Se3'
_cell_volume   151.777831813
_cell_formula_units_Z   1
loop_
 _symmetry_equiv_pos_site_id
 _symmetry_equiv_pos_as_xyz
  1  'x, y, z'
loop_
 _atom_site_type_symbol
 _atom_site_label
 _atom_site_symmetry_multiplicity
 _atom_site_fract_x
 _atom_site_fract_y
 _atom_site_fract_z
 _atom_site_occupancy
  Bi  Bi1  1  0.398435  0.398435  0.398435  1
  Bi  Bi2  1  0.601565  0.601565  0.601565  1
  Se  Se3  1  0.000000  0.000000  0.000000  1
  Se  Se4  1  0.215715  0.215715  0.215715  1
  Se  Se5  1  0.784285  0.784285  0.784285  1
